* NGSPICE file created from spm.ext - technology: EFS8A

* Black-box entry subcircuit for scs8hd_diode_2 abstract view
.subckt scs8hd_diode_2 DIODE vgnd vpwr
.ends

* Black-box entry subcircuit for scs8hd_decap_4 abstract view
.subckt scs8hd_decap_4 vgnd vpwr
.ends

* Black-box entry subcircuit for scs8hd_clkbuf_4 abstract view
.subckt scs8hd_clkbuf_4 A X vgnd vpwr
.ends

* Black-box entry subcircuit for scs8hd_xor2_4 abstract view
.subckt scs8hd_xor2_4 A B X vgnd vpwr
.ends

* Black-box entry subcircuit for scs8hd_decap_3 abstract view
.subckt scs8hd_decap_3 vgnd vpwr
.ends

* Black-box entry subcircuit for scs8hd_o22a_4 abstract view
.subckt scs8hd_o22a_4 A1 A2 B1 B2 X vgnd vpwr
.ends

* Black-box entry subcircuit for scs8hd_fill_2 abstract view
.subckt scs8hd_fill_2 vpwr vgnd
.ends

* Black-box entry subcircuit for scs8hd_fill_1 abstract view
.subckt scs8hd_fill_1 vgnd vpwr
.ends

* Black-box entry subcircuit for scs8hd_buf_1 abstract view
.subckt scs8hd_buf_1 A X vgnd vpwr
.ends

* Black-box entry subcircuit for scs8hd_decap_6 abstract view
.subckt scs8hd_decap_6 vgnd vpwr
.ends

* Black-box entry subcircuit for scs8hd_dfrtp_4 abstract view
.subckt scs8hd_dfrtp_4 CLK D Q RESETB vgnd vpwr
.ends

* Black-box entry subcircuit for scs8hd_tapvpwrvgnd_1 abstract view
.subckt scs8hd_tapvpwrvgnd_1 vgnd vpwr
.ends

* Black-box entry subcircuit for scs8hd_decap_8 abstract view
.subckt scs8hd_decap_8 vgnd vpwr
.ends

* Black-box entry subcircuit for scs8hd_a2bb2o_4 abstract view
.subckt scs8hd_a2bb2o_4 A1N A2N B1 B2 X vgnd vpwr
.ends

* Black-box entry subcircuit for scs8hd_decap_12 abstract view
.subckt scs8hd_decap_12 vgnd vpwr
.ends

* Black-box entry subcircuit for scs8hd_and2_4 abstract view
.subckt scs8hd_and2_4 A B X vgnd vpwr
.ends

* Black-box entry subcircuit for scs8hd_inv_8 abstract view
.subckt scs8hd_inv_8 A Y vgnd vpwr
.ends

* Black-box entry subcircuit for scs8hd_clkbuf_16 abstract view
.subckt scs8hd_clkbuf_16 A X vgnd vpwr
.ends

* Black-box entry subcircuit for scs8hd_a21boi_4 abstract view
.subckt scs8hd_a21boi_4 A1 A2 B1N Y vgnd vpwr
.ends

* Black-box entry subcircuit for scs8hd_or2_4 abstract view
.subckt scs8hd_or2_4 A B X vgnd vpwr
.ends

.subckt spm clk p rst x[0] x[10] x[11] x[12] x[13] x[14] x[15] x[16] x[17] x[18] x[19]
+ x[1] x[20] x[21] x[22] x[23] x[24] x[25] x[26] x[27] x[28] x[29] x[2] x[30] x[31]
+ x[3] x[4] x[5] x[6] x[7] x[8] x[9] y VDD VSS
XANTENNA__666__D _544_/X VSS VDD scs8hd_diode_2
XANTENNA__586__B2 _587_/B VSS VDD scs8hd_diode_2
XFILLER_22_100 VSS VDD scs8hd_decap_4
X_CTS_buf_1_16 _CTS_root/X _651_/CLK VSS VDD scs8hd_clkbuf_4
X_501_ _498_/X _501_/B _501_/X VSS VDD scs8hd_xor2_4
XANTENNA__682__RESETB _368_/X VSS VDD scs8hd_diode_2
XFILLER_26_41 VSS VDD scs8hd_decap_3
X_432_ _426_/Y _427_/Y _633_/Q _638_/Q _434_/B VSS VDD scs8hd_o22a_4
XFILLER_13_100 VDD VSS scs8hd_fill_2
XFILLER_42_40 VSS VDD scs8hd_fill_1
X_363_ _363_/A _363_/X VSS VDD scs8hd_buf_1
XFILLER_13_188 VDD VSS scs8hd_fill_2
XFILLER_3_56 VSS VDD scs8hd_fill_1
XFILLER_3_89 VSS VDD scs8hd_decap_4
XFILLER_8_170 VDD VSS scs8hd_fill_2
XANTENNA__633__CLK _648_/CLK VSS VDD scs8hd_diode_2
XFILLER_6_118 VSS VDD scs8hd_decap_4
XFILLER_12_32 VDD VSS scs8hd_fill_2
XFILLER_12_76 VSS VDD scs8hd_decap_4
XFILLER_37_62 VSS VDD scs8hd_decap_3
XFILLER_37_51 VDD VSS scs8hd_fill_2
XFILLER_33_228 VDD VSS scs8hd_fill_2
X_346_ _345_/X _346_/X VSS VDD scs8hd_buf_1
X_415_ _410_/A _415_/X VSS VDD scs8hd_buf_1
XANTENNA__656__CLK _651_/CLK VSS VDD scs8hd_diode_2
XFILLER_5_162 VDD VSS scs8hd_fill_2
XANTENNA__486__B1 _484_/X VSS VDD scs8hd_diode_2
XFILLER_5_184 VDD VSS scs8hd_fill_2
XFILLER_24_206 VDD VSS scs8hd_fill_2
XFILLER_32_250 VSS VDD scs8hd_decap_3
XFILLER_15_206 VDD VSS scs8hd_fill_2
XFILLER_15_217 VDD VSS scs8hd_fill_2
XFILLER_15_228 VDD VSS scs8hd_fill_2
XANTENNA__679__CLK _667_/CLK VSS VDD scs8hd_diode_2
XFILLER_2_165 VSS VDD scs8hd_decap_6
XFILLER_2_154 VDD VSS scs8hd_fill_2
XFILLER_0_24 VSS VDD scs8hd_decap_3
XFILLER_9_99 VSS VDD scs8hd_decap_4
XFILLER_14_250 VSS VDD scs8hd_decap_3
XFILLER_21_209 VSS VDD scs8hd_decap_4
XANTENNA__471__A2N _467_/Y VSS VDD scs8hd_diode_2
XANTENNA__674__D _674_/D VSS VDD scs8hd_diode_2
X_680_ _667_/CLK _680_/D _582_/A _370_/X VSS VDD scs8hd_dfrtp_4
XANTENNA__622__B1 _623_/A VSS VDD scs8hd_diode_2
XFILLER_18_20 VDD VSS scs8hd_fill_2
XFILLER_11_220 VDD VSS scs8hd_fill_2
XFILLER_38_106 VDD VSS scs8hd_fill_2
XANTENNA__402__A _402_/A VSS VDD scs8hd_diode_2
XANTENNA__669__D _669_/D VSS VDD scs8hd_diode_2
XFILLER_37_172 VSS VDD scs8hd_decap_3
XFILLER_37_161 VDD VSS scs8hd_fill_2
XFILLER_4_205 VSS VDD scs8hd_fill_1
XFILLER_20_32 VSS VDD scs8hd_decap_3
XFILLER_29_85 VDD VSS scs8hd_fill_2
XFILLER_29_52 VDD VSS scs8hd_fill_2
XFILLER_20_87 VSS VDD scs8hd_fill_1
X_663_ _651_/CLK _536_/X _663_/Q _391_/X VSS VDD scs8hd_dfrtp_4
X_594_ _594_/A _592_/X _680_/D VSS VDD scs8hd_xor2_4
XFILLER_28_183 VDD VSS scs8hd_fill_2
XFILLER_6_23 VDD VSS scs8hd_fill_2
XANTENNA__677__RESETB _375_/X VSS VDD scs8hd_diode_2
XANTENNA__565__A1N _559_/Y VSS VDD scs8hd_diode_2
XFILLER_13_3 VDD VSS scs8hd_fill_2
XFILLER_19_172 VSS VDD scs8hd_decap_3
XFILLER_25_153 VDD VSS scs8hd_fill_2
XFILLER_31_53 VDD VSS scs8hd_fill_2
XFILLER_31_31 VSS VDD scs8hd_decap_4
XFILLER_15_87 VDD VSS scs8hd_fill_2
XFILLER_31_123 VSS VDD scs8hd_decap_4
XANTENNA__347__A2 _344_/Y VSS VDD scs8hd_diode_2
X_646_ _648_/CLK _472_/X _460_/A _411_/X VSS VDD scs8hd_dfrtp_4
X_577_ _577_/A _580_/A VSS VDD scs8hd_buf_1
XPHY_170 VSS VDD scs8hd_tapvpwrvgnd_1
XPHY_192 VSS VDD scs8hd_tapvpwrvgnd_1
XPHY_181 VSS VDD scs8hd_tapvpwrvgnd_1
XFILLER_39_245 VSS VDD scs8hd_decap_8
XANTENNA__682__D _601_/X VSS VDD scs8hd_diode_2
XFILLER_22_145 VSS VDD scs8hd_decap_4
XFILLER_7_8 VDD VSS scs8hd_fill_2
X_500_ _495_/Y _496_/Y _498_/X _501_/B _653_/D VSS VDD scs8hd_a2bb2o_4
XFILLER_26_64 VDD VSS scs8hd_fill_2
X_431_ _431_/A _434_/A VSS VDD scs8hd_buf_1
X_362_ _363_/A _362_/X VSS VDD scs8hd_buf_1
XFILLER_13_112 VDD VSS scs8hd_fill_2
XFILLER_13_123 VDD VSS scs8hd_fill_2
XFILLER_42_85 VSS VDD scs8hd_decap_8
XFILLER_42_63 VSS VDD scs8hd_decap_12
XFILLER_42_52 VSS VDD scs8hd_decap_8
XFILLER_13_178 VSS VDD scs8hd_decap_4
XANTENNA__410__A _410_/A VSS VDD scs8hd_diode_2
XFILLER_36_215 VDD VSS scs8hd_fill_2
X_629_ _624_/Y _625_/Y _627_/X _630_/B _629_/X VSS VDD scs8hd_a2bb2o_4
XANTENNA__677__D _586_/X VSS VDD scs8hd_diode_2
XFILLER_42_218 VSS VDD scs8hd_decap_12
XFILLER_10_159 VSS VDD scs8hd_decap_4
XFILLER_37_41 VDD VSS scs8hd_fill_2
XFILLER_18_215 VSS VDD scs8hd_decap_4
XFILLER_41_240 VSS VDD scs8hd_decap_4
X_345_ _518_/A x[30] _345_/X VSS VDD scs8hd_and2_4
X_414_ _410_/A _414_/X VSS VDD scs8hd_buf_1
XANTENNA__405__A _405_/A VSS VDD scs8hd_diode_2
XFILLER_5_141 VSS VDD scs8hd_decap_4
XANTENNA__486__B2 _485_/X VSS VDD scs8hd_diode_2
XFILLER_24_229 VSS VDD scs8hd_decap_4
XFILLER_23_54 VDD VSS scs8hd_fill_2
XFILLER_23_10 VDD VSS scs8hd_fill_2
XFILLER_23_87 VDD VSS scs8hd_fill_2
XFILLER_23_76 VSS VDD scs8hd_decap_4
XFILLER_2_122 VSS VDD scs8hd_decap_3
XFILLER_9_23 VDD VSS scs8hd_fill_2
XFILLER_9_67 VDD VSS scs8hd_fill_2
XANTENNA__471__A1N _466_/Y VSS VDD scs8hd_diode_2
XANTENNA__690__D _630_/X VSS VDD scs8hd_diode_2
XANTENNA__622__B2 _623_/B VSS VDD scs8hd_diode_2
XANTENNA__646__CLK _648_/CLK VSS VDD scs8hd_diode_2
XFILLER_18_32 VSS VDD scs8hd_decap_8
XFILLER_34_86 VDD VSS scs8hd_fill_2
XFILLER_34_75 VSS VDD scs8hd_decap_4
XFILLER_7_236 VDD VSS scs8hd_fill_2
XFILLER_11_243 VSS VDD scs8hd_fill_1
XANTENNA__673__RESETB _379_/X VSS VDD scs8hd_diode_2
XFILLER_37_184 VSS VDD scs8hd_decap_4
XANTENNA__669__CLK _667_/CLK VSS VDD scs8hd_diode_2
XFILLER_1_90 VDD VSS scs8hd_fill_2
XANTENNA__685__D _685_/D VSS VDD scs8hd_diode_2
XANTENNA__503__A _658_/Q VSS VDD scs8hd_diode_2
XFILLER_28_140 VSS VDD scs8hd_decap_4
X_662_ _651_/CLK _662_/D _662_/Q _392_/X VSS VDD scs8hd_dfrtp_4
X_593_ _588_/Y _589_/Y _594_/A _592_/X _593_/X VSS VDD scs8hd_a2bb2o_4
XFILLER_28_195 VDD VSS scs8hd_fill_2
XFILLER_28_151 VDD VSS scs8hd_fill_2
XFILLER_6_57 VDD VSS scs8hd_fill_2
XFILLER_6_79 VDD VSS scs8hd_fill_2
XANTENNA__413__A _410_/A VSS VDD scs8hd_diode_2
XFILLER_19_140 VDD VSS scs8hd_fill_2
XFILLER_19_184 VDD VSS scs8hd_fill_2
XFILLER_34_154 VSS VDD scs8hd_decap_8
XANTENNA__522__B1 _520_/X VSS VDD scs8hd_diode_2
XFILLER_25_132 VSS VDD scs8hd_decap_8
XFILLER_25_121 VSS VDD scs8hd_fill_1
XFILLER_15_55 VDD VSS scs8hd_fill_2
XANTENNA__334__A2N _632_/Y VSS VDD scs8hd_diode_2
XANTENNA__513__B1 _657_/Q VSS VDD scs8hd_diode_2
X_645_ _648_/CLK _471_/X _645_/Q _412_/X VSS VDD scs8hd_dfrtp_4
XANTENNA__408__A _405_/A VSS VDD scs8hd_diode_2
XPHY_193 VSS VDD scs8hd_tapvpwrvgnd_1
XPHY_182 VSS VDD scs8hd_tapvpwrvgnd_1
X_576_ _597_/A x[20] _577_/A VSS VDD scs8hd_and2_4
XFILLER_16_154 VDD VSS scs8hd_fill_2
XPHY_160 VSS VDD scs8hd_tapvpwrvgnd_1
XPHY_171 VSS VDD scs8hd_tapvpwrvgnd_1
XFILLER_39_235 VDD VSS scs8hd_fill_2
XFILLER_30_190 VSS VDD scs8hd_decap_4
XFILLER_22_179 VSS VDD scs8hd_decap_4
XFILLER_22_135 VSS VDD scs8hd_decap_6
XFILLER_26_32 VSS VDD scs8hd_decap_3
XFILLER_26_21 VDD VSS scs8hd_fill_2
XFILLER_26_98 VSS VDD scs8hd_decap_6
X_430_ _461_/A x[0] _431_/A VSS VDD scs8hd_and2_4
XFILLER_9_139 VDD VSS scs8hd_fill_2
X_361_ _363_/A _361_/X VSS VDD scs8hd_buf_1
XFILLER_42_75 VSS VDD scs8hd_decap_3
XFILLER_36_205 VSS VDD scs8hd_decap_4
X_628_ _624_/Y _625_/Y _624_/A _625_/A _630_/B VSS VDD scs8hd_o22a_4
X_559_ _671_/Q _559_/Y VSS VDD scs8hd_inv_8
XANTENNA__601__A _598_/X VSS VDD scs8hd_diode_2
XFILLER_8_194 VDD VSS scs8hd_fill_2
XANTENNA__693__D _341_/X VSS VDD scs8hd_diode_2
XFILLER_10_127 VSS VDD scs8hd_decap_12
XFILLER_12_12 VSS VDD scs8hd_decap_4
XFILLER_12_23 VDD VSS scs8hd_fill_2
X_CTS_buf_1_0 _CTS_root/X _648_/CLK VSS VDD scs8hd_clkbuf_4
XANTENNA__511__A _476_/A VSS VDD scs8hd_diode_2
XANTENNA__522__A2N _517_/Y VSS VDD scs8hd_diode_2
XFILLER_37_97 VDD VSS scs8hd_fill_2
X_413_ _410_/A _413_/X VSS VDD scs8hd_buf_1
X_344_ _344_/A _344_/Y VSS VDD scs8hd_inv_8
XANTENNA__421__A _417_/A VSS VDD scs8hd_diode_2
XANTENNA__668__RESETB _385_/X VSS VDD scs8hd_diode_2
XANTENNA__331__A _605_/A VSS VDD scs8hd_diode_2
XANTENNA__688__D _688_/D VSS VDD scs8hd_diode_2
XFILLER_23_66 VSS VDD scs8hd_decap_3
XFILLER_3_3 VSS VDD scs8hd_decap_12
XFILLER_2_145 VSS VDD scs8hd_decap_4
XFILLER_0_37 VDD VSS scs8hd_fill_2
XFILLER_9_35 VDD VSS scs8hd_fill_2
XANTENNA__416__A _373_/A VSS VDD scs8hd_diode_2
XFILLER_9_57 VSS VDD scs8hd_decap_4
XFILLER_36_3 VDD VSS scs8hd_fill_2
XFILLER_18_44 VDD VSS scs8hd_fill_2
XFILLER_34_32 VDD VSS scs8hd_fill_2
XFILLER_34_21 VDD VSS scs8hd_fill_2
XFILLER_18_66 VSS VDD scs8hd_fill_1
XFILLER_18_99 VDD VSS scs8hd_fill_2
XFILLER_7_215 VSS VDD scs8hd_fill_1
XFILLER_11_233 VDD VSS scs8hd_fill_2
XFILLER_37_130 VDD VSS scs8hd_fill_2
XFILLER_29_10 VDD VSS scs8hd_fill_2
XFILLER_4_229 VDD VSS scs8hd_fill_2
X_592_ _588_/Y _589_/Y _679_/Q _682_/Q _592_/X VSS VDD scs8hd_o22a_4
X_661_ _651_/CLK _661_/D _661_/Q _393_/X VSS VDD scs8hd_dfrtp_4
XFILLER_29_76 VDD VSS scs8hd_fill_2
XFILLER_28_174 VDD VSS scs8hd_fill_2
XFILLER_34_188 VDD VSS scs8hd_fill_2
XANTENNA__604__A y VSS VDD scs8hd_diode_2
XANTENNA__636__CLK _648_/CLK VSS VDD scs8hd_diode_2
XANTENNA__522__B2 _521_/X VSS VDD scs8hd_diode_2
XANTENNA__696__D _349_/X VSS VDD scs8hd_diode_2
XFILLER_40_158 VSS VDD scs8hd_fill_1
XFILLER_40_147 VDD VSS scs8hd_fill_2
XFILLER_40_125 VDD VSS scs8hd_fill_2
XFILLER_25_144 VDD VSS scs8hd_fill_2
XFILLER_25_100 VDD VSS scs8hd_fill_2
XANTENNA__334__A1N _631_/Y VSS VDD scs8hd_diode_2
XFILLER_31_88 VSS VDD scs8hd_decap_4
XFILLER_31_77 VSS VDD scs8hd_decap_4
XANTENNA__513__A1 _509_/Y VSS VDD scs8hd_diode_2
XANTENNA__629__A2N _625_/Y VSS VDD scs8hd_diode_2
XANTENNA__513__B2 _660_/Q VSS VDD scs8hd_diode_2
X_575_ _678_/Q _575_/Y VSS VDD scs8hd_inv_8
X_644_ _648_/CLK _465_/X _644_/Q _413_/X VSS VDD scs8hd_dfrtp_4
XFILLER_31_114 VSS VDD scs8hd_decap_4
XPHY_194 VSS VDD scs8hd_tapvpwrvgnd_1
XPHY_183 VSS VDD scs8hd_tapvpwrvgnd_1
XANTENNA__659__CLK _651_/CLK VSS VDD scs8hd_diode_2
XANTENNA__424__A _366_/A VSS VDD scs8hd_diode_2
XPHY_150 VSS VDD scs8hd_tapvpwrvgnd_1
XPHY_161 VSS VDD scs8hd_tapvpwrvgnd_1
XPHY_172 VSS VDD scs8hd_tapvpwrvgnd_1
XANTENNA__509__A _657_/Q VSS VDD scs8hd_diode_2
XFILLER_42_32 VSS VDD scs8hd_decap_8
X_360_ _363_/A _360_/X VSS VDD scs8hd_buf_1
XFILLER_42_98 VSS VDD scs8hd_decap_6
XFILLER_3_59 VDD VSS scs8hd_fill_2
XFILLER_3_48 VDD VSS scs8hd_fill_2
XFILLER_3_15 VSS VDD scs8hd_fill_1
XFILLER_36_239 VDD VSS scs8hd_fill_2
X_558_ _558_/A _558_/B _670_/D VSS VDD scs8hd_xor2_4
XANTENNA__419__A _417_/A VSS VDD scs8hd_diode_2
X_627_ _626_/X _627_/X VSS VDD scs8hd_buf_1
X_489_ _489_/A _489_/Y VSS VDD scs8hd_inv_8
XFILLER_8_151 VDD VSS scs8hd_fill_2
XANTENNA__601__B _601_/B VSS VDD scs8hd_diode_2
XANTENNA__664__RESETB _390_/X VSS VDD scs8hd_diode_2
XFILLER_27_239 VSS VDD scs8hd_decap_4
XFILLER_10_139 VDD VSS scs8hd_fill_2
XFILLER_12_46 VSS VDD scs8hd_decap_4
XFILLER_12_57 VDD VSS scs8hd_fill_2
XANTENNA__511__B x[11] VSS VDD scs8hd_diode_2
XFILLER_18_206 VSS VDD scs8hd_decap_4
XANTENNA__522__A1N _516_/Y VSS VDD scs8hd_diode_2
X_412_ _410_/A _412_/X VSS VDD scs8hd_buf_1
XFILLER_5_121 VSS VDD scs8hd_fill_1
X_343_ _343_/A _343_/Y VSS VDD scs8hd_inv_8
XFILLER_5_154 VDD VSS scs8hd_fill_2
XFILLER_5_176 VSS VDD scs8hd_decap_3
XFILLER_32_242 VSS VDD scs8hd_decap_8
XFILLER_32_220 VDD VSS scs8hd_fill_2
XANTENNA__612__A _605_/A VSS VDD scs8hd_diode_2
XANTENNA__331__B x[28] VSS VDD scs8hd_diode_2
XFILLER_23_242 VDD VSS scs8hd_fill_2
XFILLER_0_49 VSS VDD scs8hd_decap_12
XFILLER_14_220 VDD VSS scs8hd_fill_2
XFILLER_14_242 VSS VDD scs8hd_decap_8
XFILLER_29_3 VSS VDD scs8hd_decap_4
XFILLER_20_201 VDD VSS scs8hd_fill_2
XFILLER_20_212 VDD VSS scs8hd_fill_2
XANTENNA__342__A _339_/X VSS VDD scs8hd_diode_2
XANTENNA__607__B1 _683_/Q VSS VDD scs8hd_diode_2
XFILLER_18_12 VDD VSS scs8hd_fill_2
XANTENNA__517__A _662_/Q VSS VDD scs8hd_diode_2
XFILLER_18_78 VSS VDD scs8hd_decap_12
XANTENNA__692__CLK _681_/CLK VSS VDD scs8hd_diode_2
XFILLER_7_249 VSS VDD scs8hd_decap_4
XFILLER_11_245 VSS VDD scs8hd_decap_8
XANTENNA__427__A _638_/Q VSS VDD scs8hd_diode_2
XFILLER_37_120 VDD VSS scs8hd_fill_2
XANTENNA__337__A _337_/A VSS VDD scs8hd_diode_2
XFILLER_4_208 VDD VSS scs8hd_fill_2
XFILLER_20_24 VDD VSS scs8hd_fill_2
XFILLER_29_44 VDD VSS scs8hd_fill_2
XFILLER_20_57 VSS VDD scs8hd_decap_4
X_591_ _590_/X _594_/A VSS VDD scs8hd_buf_1
XFILLER_28_131 VSS VDD scs8hd_decap_6
X_660_ _651_/CLK _660_/D _660_/Q _394_/X VSS VDD scs8hd_dfrtp_4
XFILLER_3_230 VDD VSS scs8hd_fill_2
XFILLER_10_90 VDD VSS scs8hd_fill_2
XFILLER_20_7 VSS VDD scs8hd_decap_4
XFILLER_19_120 VDD VSS scs8hd_fill_2
XFILLER_19_131 VSS VDD scs8hd_decap_6
XFILLER_34_145 VDD VSS scs8hd_fill_2
XFILLER_34_134 VSS VDD scs8hd_decap_8
XFILLER_34_123 VDD VSS scs8hd_fill_2
XFILLER_19_164 VDD VSS scs8hd_fill_2
XANTENNA__620__A _620_/A VSS VDD scs8hd_diode_2
XFILLER_25_123 VDD VSS scs8hd_fill_2
XFILLER_25_178 VSS VDD scs8hd_fill_1
XANTENNA__513__A2 _510_/Y VSS VDD scs8hd_diode_2
XANTENNA__629__A1N _624_/Y VSS VDD scs8hd_diode_2
XANTENNA__659__RESETB _396_/X VSS VDD scs8hd_diode_2
XANTENNA__530__A _527_/X VSS VDD scs8hd_diode_2
XFILLER_0_222 VDD VSS scs8hd_fill_2
X_574_ _574_/A _574_/Y VSS VDD scs8hd_inv_8
X_643_ _648_/CLK _643_/D _643_/Q _414_/X VSS VDD scs8hd_dfrtp_4
XPHY_195 VSS VDD scs8hd_tapvpwrvgnd_1
XPHY_184 VSS VDD scs8hd_tapvpwrvgnd_1
XPHY_140 VSS VDD scs8hd_tapvpwrvgnd_1
XPHY_151 VSS VDD scs8hd_tapvpwrvgnd_1
XPHY_162 VSS VDD scs8hd_tapvpwrvgnd_1
XPHY_173 VSS VDD scs8hd_tapvpwrvgnd_1
XANTENNA__440__A _461_/A VSS VDD scs8hd_diode_2
XFILLER_11_3 VDD VSS scs8hd_fill_2
XFILLER_30_170 VSS VDD scs8hd_decap_3
XFILLER_7_91 VSS VDD scs8hd_decap_4
XANTENNA__660__RESETB _394_/X VSS VDD scs8hd_diode_2
XANTENNA__350__A _366_/A VSS VDD scs8hd_diode_2
XFILLER_13_104 VDD VSS scs8hd_fill_2
XANTENNA__525__A _664_/Q VSS VDD scs8hd_diode_2
XFILLER_13_148 VDD VSS scs8hd_fill_2
XFILLER_21_170 VSS VDD scs8hd_decap_4
XFILLER_21_181 VDD VSS scs8hd_fill_2
X_488_ _488_/A _488_/Y VSS VDD scs8hd_inv_8
X_557_ _552_/Y _553_/Y _558_/A _558_/B _669_/D VSS VDD scs8hd_a2bb2o_4
X_626_ _605_/A x[27] _626_/X VSS VDD scs8hd_and2_4
XANTENNA__435__A _518_/A VSS VDD scs8hd_diode_2
XFILLER_8_174 VDD VSS scs8hd_fill_2
XFILLER_35_240 VSS VDD scs8hd_decap_4
XFILLER_10_118 VSS VDD scs8hd_decap_3
XANTENNA__345__A _518_/A VSS VDD scs8hd_diode_2
XFILLER_12_36 VDD VSS scs8hd_fill_2
XFILLER_37_55 VDD VSS scs8hd_fill_2
XANTENNA__649__CLK _651_/CLK VSS VDD scs8hd_diode_2
XFILLER_41_221 VSS VDD scs8hd_decap_4
X_342_ _339_/X _340_/X _694_/D VSS VDD scs8hd_xor2_4
X_411_ _410_/A _411_/X VSS VDD scs8hd_buf_1
XFILLER_5_133 VDD VSS scs8hd_fill_2
XFILLER_38_8 VSS VDD scs8hd_decap_3
XANTENNA__340__B1 _693_/Q VSS VDD scs8hd_diode_2
XFILLER_5_166 VSS VDD scs8hd_decap_3
X_609_ _609_/A _609_/B _684_/D VSS VDD scs8hd_xor2_4
XFILLER_17_240 VSS VDD scs8hd_decap_4
XFILLER_32_232 VSS VDD scs8hd_fill_1
XANTENNA__612__B x[25] VSS VDD scs8hd_diode_2
XFILLER_4_70 VDD VSS scs8hd_fill_2
XFILLER_23_46 VDD VSS scs8hd_fill_2
XFILLER_23_35 VSS VDD scs8hd_decap_3
XANTENNA__464__A2N _460_/Y VSS VDD scs8hd_diode_2
XFILLER_1_191 VDD VSS scs8hd_fill_2
XANTENNA__623__A _623_/A VSS VDD scs8hd_diode_2
XANTENNA__342__B _340_/X VSS VDD scs8hd_diode_2
XANTENNA__607__B2 _603_/A VSS VDD scs8hd_diode_2
XANTENNA__607__A1 _602_/Y VSS VDD scs8hd_diode_2
XFILLER_18_24 VSS VDD scs8hd_decap_3
XFILLER_34_45 VSS VDD scs8hd_fill_1
XFILLER_11_213 VSS VDD scs8hd_fill_1
XANTENNA__533__A _547_/A VSS VDD scs8hd_diode_2
XANTENNA__543__B1 _544_/A VSS VDD scs8hd_diode_2
XFILLER_41_3 VSS VDD scs8hd_decap_12
XANTENNA__618__A _690_/Q VSS VDD scs8hd_diode_2
XANTENNA__353__A _357_/A VSS VDD scs8hd_diode_2
XFILLER_29_67 VDD VSS scs8hd_fill_2
XFILLER_29_56 VSS VDD scs8hd_decap_4
X_590_ _597_/A x[22] _590_/X VSS VDD scs8hd_and2_4
XFILLER_29_89 VDD VSS scs8hd_fill_2
XFILLER_28_187 VSS VDD scs8hd_decap_4
XFILLER_28_154 VDD VSS scs8hd_fill_2
XFILLER_28_110 VSS VDD scs8hd_decap_3
XANTENNA__655__RESETB _400_/X VSS VDD scs8hd_diode_2
XFILLER_6_27 VSS VDD scs8hd_decap_4
XFILLER_13_7 VDD VSS scs8hd_fill_2
XFILLER_34_113 VSS VDD scs8hd_decap_3
XANTENNA__438__A _438_/A VSS VDD scs8hd_diode_2
XANTENNA__507__B1 _508_/A VSS VDD scs8hd_diode_2
XANTENNA__682__CLK _681_/CLK VSS VDD scs8hd_diode_2
XFILLER_25_157 VDD VSS scs8hd_fill_2
XFILLER_25_113 VDD VSS scs8hd_fill_2
XFILLER_25_168 VDD VSS scs8hd_fill_2
XFILLER_15_47 VDD VSS scs8hd_fill_2
XFILLER_31_57 VSS VDD scs8hd_decap_4
XANTENNA__530__B _528_/X VSS VDD scs8hd_diode_2
XFILLER_0_245 VSS VDD scs8hd_decap_3
X_642_ _648_/CLK _458_/X _446_/A _415_/X VSS VDD scs8hd_dfrtp_4
XFILLER_31_149 VSS VDD scs8hd_decap_4
XPHY_130 VSS VDD scs8hd_tapvpwrvgnd_1
XPHY_141 VSS VDD scs8hd_tapvpwrvgnd_1
XPHY_152 VSS VDD scs8hd_tapvpwrvgnd_1
X_573_ _570_/X _573_/B _674_/D VSS VDD scs8hd_xor2_4
XPHY_196 VSS VDD scs8hd_tapvpwrvgnd_1
XPHY_185 VSS VDD scs8hd_tapvpwrvgnd_1
XPHY_163 VSS VDD scs8hd_tapvpwrvgnd_1
XPHY_174 VSS VDD scs8hd_tapvpwrvgnd_1
XFILLER_39_216 VDD VSS scs8hd_fill_2
XANTENNA__440__B x[1] VSS VDD scs8hd_diode_2
XFILLER_39_227 VDD VSS scs8hd_fill_2
XANTENNA__631__A _691_/Q VSS VDD scs8hd_diode_2
XFILLER_26_68 VSS VDD scs8hd_decap_12
XFILLER_26_13 VDD VSS scs8hd_fill_2
XFILLER_13_116 VDD VSS scs8hd_fill_2
XFILLER_21_193 VDD VSS scs8hd_fill_2
XANTENNA__541__A _540_/X VSS VDD scs8hd_diode_2
X_625_ _625_/A _625_/Y VSS VDD scs8hd_inv_8
X_487_ _484_/X _485_/X _487_/X VSS VDD scs8hd_xor2_4
X_556_ _552_/Y _553_/Y _552_/A _553_/A _558_/B VSS VDD scs8hd_o22a_4
XFILLER_12_171 VSS VDD scs8hd_decap_4
XANTENNA__435__B x[31] VSS VDD scs8hd_diode_2
XFILLER_16_90 VDD VSS scs8hd_fill_2
XANTENNA__451__A _451_/A VSS VDD scs8hd_diode_2
XFILLER_12_182 VSS VDD scs8hd_decap_3
XANTENNA__626__A _605_/A VSS VDD scs8hd_diode_2
XANTENNA__345__B x[30] VSS VDD scs8hd_diode_2
XANTENNA__361__A _363_/A VSS VDD scs8hd_diode_2
XFILLER_37_67 VDD VSS scs8hd_fill_2
XFILLER_37_45 VSS VDD scs8hd_decap_3
XFILLER_37_34 VSS VDD scs8hd_decap_4
XFILLER_18_219 VSS VDD scs8hd_fill_1
X_341_ _336_/Y _337_/Y _339_/X _340_/X _341_/X VSS VDD scs8hd_a2bb2o_4
X_410_ _410_/A _410_/X VSS VDD scs8hd_buf_1
XFILLER_5_123 VDD VSS scs8hd_fill_2
XANTENNA__340__A1 _336_/Y VSS VDD scs8hd_diode_2
XANTENNA__340__B2 _337_/A VSS VDD scs8hd_diode_2
X_608_ _602_/Y _603_/Y _609_/A _609_/B _683_/D VSS VDD scs8hd_a2bb2o_4
XANTENNA__446__A _446_/A VSS VDD scs8hd_diode_2
XANTENNA__CTS_root_A clk VSS VDD scs8hd_diode_2
X_539_ _539_/A _539_/Y VSS VDD scs8hd_inv_8
XFILLER_4_93 VDD VSS scs8hd_fill_2
XANTENNA__356__A _357_/A VSS VDD scs8hd_diode_2
XFILLER_23_58 VSS VDD scs8hd_decap_3
XFILLER_0_29 VDD VSS scs8hd_fill_2
XFILLER_9_27 VSS VDD scs8hd_decap_4
XANTENNA__464__A1N _459_/Y VSS VDD scs8hd_diode_2
XFILLER_1_170 VDD VSS scs8hd_fill_2
XANTENNA__639__CLK _648_/CLK VSS VDD scs8hd_diode_2
XANTENNA__623__B _623_/B VSS VDD scs8hd_diode_2
XANTENNA__607__A2 _603_/Y VSS VDD scs8hd_diode_2
XFILLER_18_69 VDD VSS scs8hd_fill_2
XFILLER_34_79 VSS VDD scs8hd_fill_1
XFILLER_7_218 VDD VSS scs8hd_fill_2
XANTENNA__533__B x[14] VSS VDD scs8hd_diode_2
XANTENNA__543__B2 _544_/B VSS VDD scs8hd_diode_2
XANTENNA__651__RESETB _405_/X VSS VDD scs8hd_diode_2
XFILLER_1_3 VSS VDD scs8hd_decap_3
XFILLER_34_3 VDD VSS scs8hd_fill_2
XFILLER_37_177 VDD VSS scs8hd_fill_2
XFILLER_37_155 VSS VDD scs8hd_decap_4
XANTENNA__470__B1 _645_/Q VSS VDD scs8hd_diode_2
XFILLER_29_35 VDD VSS scs8hd_fill_2
XFILLER_28_199 VDD VSS scs8hd_fill_2
XFILLER_28_144 VSS VDD scs8hd_fill_1
XANTENNA__544__A _544_/A VSS VDD scs8hd_diode_2
XFILLER_19_177 VDD VSS scs8hd_fill_2
XANTENNA__454__A _461_/A VSS VDD scs8hd_diode_2
XANTENNA__507__B2 _508_/B VSS VDD scs8hd_diode_2
XANTENNA__443__B1 _441_/X VSS VDD scs8hd_diode_2
XFILLER_15_59 VDD VSS scs8hd_fill_2
XANTENNA__364__A _363_/A VSS VDD scs8hd_diode_2
XFILLER_0_213 VSS VDD scs8hd_decap_4
XANTENNA__539__A _539_/A VSS VDD scs8hd_diode_2
X_641_ _648_/CLK _457_/X _452_/A _417_/X VSS VDD scs8hd_dfrtp_4
X_572_ _567_/Y _568_/Y _570_/X _573_/B _572_/X VSS VDD scs8hd_a2bb2o_4
XFILLER_16_103 VDD VSS scs8hd_fill_2
XFILLER_24_191 VSS VDD scs8hd_decap_4
XPHY_120 VSS VDD scs8hd_tapvpwrvgnd_1
XPHY_131 VSS VDD scs8hd_tapvpwrvgnd_1
XPHY_142 VSS VDD scs8hd_tapvpwrvgnd_1
XPHY_153 VSS VDD scs8hd_tapvpwrvgnd_1
XFILLER_16_125 VSS VDD scs8hd_decap_8
XFILLER_16_147 VDD VSS scs8hd_fill_2
XFILLER_16_169 VSS VDD scs8hd_fill_1
XPHY_164 VSS VDD scs8hd_tapvpwrvgnd_1
XPHY_175 VSS VDD scs8hd_tapvpwrvgnd_1
XPHY_197 VSS VDD scs8hd_tapvpwrvgnd_1
XPHY_186 VSS VDD scs8hd_tapvpwrvgnd_1
XFILLER_21_91 VDD VSS scs8hd_fill_2
XFILLER_39_239 VSS VDD scs8hd_decap_4
XFILLER_22_106 VDD VSS scs8hd_fill_2
XPHY_0 VSS VDD scs8hd_decap_3
XFILLER_30_194 VSS VDD scs8hd_fill_1
XFILLER_30_183 VSS VDD scs8hd_fill_1
XFILLER_7_82 VDD VSS scs8hd_fill_2
XANTENNA__359__A _366_/A VSS VDD scs8hd_diode_2
XFILLER_26_25 VDD VSS scs8hd_fill_2
XFILLER_21_150 VDD VSS scs8hd_fill_2
XFILLER_3_18 VDD VSS scs8hd_fill_2
XFILLER_36_209 VSS VDD scs8hd_fill_1
X_555_ _554_/X _558_/A VSS VDD scs8hd_buf_1
X_624_ _624_/A _624_/Y VSS VDD scs8hd_inv_8
X_486_ _481_/Y _482_/Y _484_/X _485_/X _486_/X VSS VDD scs8hd_a2bb2o_4
XFILLER_8_143 VDD VSS scs8hd_fill_2
XFILLER_8_154 VDD VSS scs8hd_fill_2
XFILLER_32_90 VDD VSS scs8hd_fill_2
XANTENNA__672__CLK _667_/CLK VSS VDD scs8hd_diode_2
XANTENNA__451__B _449_/X VSS VDD scs8hd_diode_2
XFILLER_8_198 VSS VDD scs8hd_decap_4
XFILLER_27_209 VDD VSS scs8hd_fill_2
XFILLER_35_220 VDD VSS scs8hd_fill_2
XANTENNA__626__B x[27] VSS VDD scs8hd_diode_2
XFILLER_12_16 VSS VDD scs8hd_fill_1
XFILLER_12_27 VSS VDD scs8hd_decap_4
XFILLER_41_245 VSS VDD scs8hd_decap_8
X_340_ _336_/Y _337_/Y _693_/Q _337_/A _340_/X VSS VDD scs8hd_o22a_4
XANTENNA__552__A _552_/A VSS VDD scs8hd_diode_2
XFILLER_5_113 VDD VSS scs8hd_fill_2
XANTENNA__340__A2 _337_/Y VSS VDD scs8hd_diode_2
XANTENNA__695__CLK _681_/CLK VSS VDD scs8hd_diode_2
XANTENNA__628__B1 _624_/A VSS VDD scs8hd_diode_2
X_538_ _538_/A _538_/Y VSS VDD scs8hd_inv_8
X_607_ _602_/Y _603_/Y _683_/Q _603_/A _609_/B VSS VDD scs8hd_o22a_4
XANTENNA__646__RESETB _411_/X VSS VDD scs8hd_diode_2
X_469_ _469_/A _469_/X VSS VDD scs8hd_buf_1
XANTENNA__462__A _462_/A VSS VDD scs8hd_diode_2
XFILLER_23_245 VSS VDD scs8hd_decap_8
XFILLER_23_234 VDD VSS scs8hd_fill_2
XFILLER_23_223 VDD VSS scs8hd_fill_2
XFILLER_23_212 VDD VSS scs8hd_fill_2
XANTENNA__372__A _370_/A VSS VDD scs8hd_diode_2
XFILLER_2_127 VSS VDD scs8hd_decap_4
XANTENNA__547__A _547_/A VSS VDD scs8hd_diode_2
XFILLER_9_39 VDD VSS scs8hd_fill_2
XFILLER_36_7 VDD VSS scs8hd_fill_2
XFILLER_1_160 VDD VSS scs8hd_fill_2
XFILLER_1_182 VSS VDD scs8hd_fill_1
XFILLER_20_215 VDD VSS scs8hd_fill_2
XFILLER_34_25 VDD VSS scs8hd_fill_2
XANTENNA__367__A _370_/A VSS VDD scs8hd_diode_2
XFILLER_18_48 VSS VDD scs8hd_decap_12
XFILLER_34_69 VSS VDD scs8hd_decap_4
XFILLER_11_237 VSS VDD scs8hd_decap_6
XFILLER_24_91 VSS VDD scs8hd_fill_1
XFILLER_24_80 VSS VDD scs8hd_fill_1
XFILLER_6_241 VSS VDD scs8hd_decap_12
XFILLER_27_3 VSS VDD scs8hd_decap_4
XFILLER_37_123 VSS VDD scs8hd_decap_4
XFILLER_1_62 VDD VSS scs8hd_fill_2
XFILLER_1_73 VDD VSS scs8hd_fill_2
XANTENNA__470__A1 _466_/Y VSS VDD scs8hd_diode_2
XANTENNA__470__B2 _648_/Q VSS VDD scs8hd_diode_2
XFILLER_28_178 VDD VSS scs8hd_fill_2
XANTENNA__544__B _544_/B VSS VDD scs8hd_diode_2
XANTENNA__560__A _560_/A VSS VDD scs8hd_diode_2
XFILLER_10_93 VDD VSS scs8hd_fill_2
XFILLER_19_80 VDD VSS scs8hd_fill_2
XFILLER_19_91 VDD VSS scs8hd_fill_2
XFILLER_19_123 VDD VSS scs8hd_fill_2
XANTENNA__454__B x[3] VSS VDD scs8hd_diode_2
XANTENNA__443__B2 _442_/X VSS VDD scs8hd_diode_2
XFILLER_25_148 VSS VDD scs8hd_decap_3
XANTENNA__694__RESETB _353_/X VSS VDD scs8hd_diode_2
XFILLER_15_27 VDD VSS scs8hd_fill_2
XFILLER_33_192 VSS VDD scs8hd_fill_1
XFILLER_31_37 VDD VSS scs8hd_fill_2
XANTENNA__380__A _375_/A VSS VDD scs8hd_diode_2
X_640_ _648_/CLK _451_/X _640_/Q _418_/X VSS VDD scs8hd_dfrtp_4
X_571_ _567_/Y _568_/Y _673_/Q _676_/Q _573_/B VSS VDD scs8hd_o22a_4
XPHY_198 VSS VDD scs8hd_tapvpwrvgnd_1
XANTENNA__555__A _554_/X VSS VDD scs8hd_diode_2
XFILLER_24_181 VSS VDD scs8hd_decap_3
XPHY_187 VSS VDD scs8hd_tapvpwrvgnd_1
XPHY_110 VSS VDD scs8hd_tapvpwrvgnd_1
XPHY_121 VSS VDD scs8hd_tapvpwrvgnd_1
XPHY_132 VSS VDD scs8hd_tapvpwrvgnd_1
XPHY_143 VSS VDD scs8hd_tapvpwrvgnd_1
XPHY_154 VSS VDD scs8hd_tapvpwrvgnd_1
XFILLER_16_159 VDD VSS scs8hd_fill_2
XPHY_165 VSS VDD scs8hd_tapvpwrvgnd_1
XPHY_176 VSS VDD scs8hd_tapvpwrvgnd_1
XPHY_1 VSS VDD scs8hd_decap_3
XANTENNA__465__A _462_/X VSS VDD scs8hd_diode_2
XFILLER_15_181 VDD VSS scs8hd_fill_2
XFILLER_26_37 VDD VSS scs8hd_fill_2
XANTENNA__375__A _375_/A VSS VDD scs8hd_diode_2
XFILLER_21_184 VSS VDD scs8hd_decap_3
X_485_ _481_/Y _482_/Y _649_/Q _652_/Q _485_/X VSS VDD scs8hd_o22a_4
X_554_ _547_/A x[17] _554_/X VSS VDD scs8hd_and2_4
X_623_ _623_/A _623_/B _688_/D VSS VDD scs8hd_xor2_4
XFILLER_12_151 VDD VSS scs8hd_fill_2
XANTENNA__642__RESETB _415_/X VSS VDD scs8hd_diode_2
XANTENNA__334__B1 _332_/X VSS VDD scs8hd_diode_2
XFILLER_5_158 VDD VSS scs8hd_fill_2
XANTENNA__628__B2 _625_/A VSS VDD scs8hd_diode_2
XANTENNA__628__A1 _624_/Y VSS VDD scs8hd_diode_2
X_537_ _534_/X _535_/X _537_/X VSS VDD scs8hd_xor2_4
XFILLER_32_224 VSS VDD scs8hd_decap_8
X_606_ _605_/X _609_/A VSS VDD scs8hd_buf_1
X_468_ _461_/A x[5] _469_/A VSS VDD scs8hd_and2_4
X_399_ _401_/A _399_/X VSS VDD scs8hd_buf_1
XANTENNA__564__B1 _671_/Q VSS VDD scs8hd_diode_2
XFILLER_4_84 VSS VDD scs8hd_decap_8
XANTENNA__547__B x[16] VSS VDD scs8hd_diode_2
XANTENNA__662__CLK _651_/CLK VSS VDD scs8hd_diode_2
XFILLER_14_224 VSS VDD scs8hd_decap_3
XFILLER_13_82 VSS VDD scs8hd_decap_4
XANTENNA__563__A _563_/A VSS VDD scs8hd_diode_2
XFILLER_29_7 VSS VDD scs8hd_fill_1
XFILLER_38_90 VDD VSS scs8hd_fill_2
XANTENNA__473__A _473_/A VSS VDD scs8hd_diode_2
XFILLER_20_205 VSS VDD scs8hd_decap_4
XFILLER_18_16 VDD VSS scs8hd_fill_2
XFILLER_34_37 VSS VDD scs8hd_decap_8
XANTENNA__685__CLK _681_/CLK VSS VDD scs8hd_diode_2
XANTENNA__383__A _386_/A VSS VDD scs8hd_diode_2
XANTENNA__528__B1 _661_/Q VSS VDD scs8hd_diode_2
XFILLER_11_216 VDD VSS scs8hd_fill_2
XANTENNA__689__RESETB _360_/X VSS VDD scs8hd_diode_2
XANTENNA__558__A _558_/A VSS VDD scs8hd_diode_2
XFILLER_37_113 VSS VDD scs8hd_decap_4
XANTENNA__468__A _461_/A VSS VDD scs8hd_diode_2
XFILLER_1_85 VSS VDD scs8hd_decap_3
XANTENNA__470__A2 _467_/Y VSS VDD scs8hd_diode_2
XANTENNA__690__RESETB _357_/X VSS VDD scs8hd_diode_2
XFILLER_20_28 VSS VDD scs8hd_decap_3
XFILLER_29_48 VDD VSS scs8hd_fill_2
XFILLER_28_102 VDD VSS scs8hd_fill_2
XANTENNA__378__A _375_/A VSS VDD scs8hd_diode_2
XFILLER_3_245 VSS VDD scs8hd_decap_8
XFILLER_3_234 VDD VSS scs8hd_fill_2
XFILLER_10_83 VSS VDD scs8hd_decap_4
XFILLER_34_149 VSS VDD scs8hd_decap_4
XFILLER_34_127 VSS VDD scs8hd_decap_4
XFILLER_34_105 VSS VDD scs8hd_decap_8
XFILLER_19_168 VDD VSS scs8hd_fill_2
XFILLER_35_80 VDD VSS scs8hd_fill_2
XFILLER_40_119 VSS VDD scs8hd_decap_4
XFILLER_33_171 VDD VSS scs8hd_fill_2
XANTENNA__637__RESETB _421_/X VSS VDD scs8hd_diode_2
XFILLER_18_190 VDD VSS scs8hd_fill_2
XFILLER_31_27 VDD VSS scs8hd_fill_2
XFILLER_0_237 VSS VDD scs8hd_decap_8
XFILLER_0_226 VDD VSS scs8hd_fill_2
XPHY_100 VSS VDD scs8hd_tapvpwrvgnd_1
X_570_ _570_/A _570_/X VSS VDD scs8hd_buf_1
XPHY_199 VSS VDD scs8hd_tapvpwrvgnd_1
XPHY_188 VSS VDD scs8hd_tapvpwrvgnd_1
XPHY_177 VSS VDD scs8hd_tapvpwrvgnd_1
XPHY_111 VSS VDD scs8hd_tapvpwrvgnd_1
XPHY_122 VSS VDD scs8hd_tapvpwrvgnd_1
XPHY_133 VSS VDD scs8hd_tapvpwrvgnd_1
XPHY_144 VSS VDD scs8hd_tapvpwrvgnd_1
XPHY_155 VSS VDD scs8hd_tapvpwrvgnd_1
XPHY_166 VSS VDD scs8hd_tapvpwrvgnd_1
XPHY_2 VSS VDD scs8hd_decap_3
XANTENNA__465__B _465_/B VSS VDD scs8hd_diode_2
XFILLER_15_160 VDD VSS scs8hd_fill_2
XANTENNA__481__A _649_/Q VSS VDD scs8hd_diode_2
XFILLER_7_62 VDD VSS scs8hd_fill_2
XFILLER_7_95 VSS VDD scs8hd_fill_1
XFILLER_38_230 VSS VDD scs8hd_decap_6
XFILLER_42_48 VDD VSS scs8hd_fill_2
XFILLER_42_15 VSS VDD scs8hd_decap_12
XANTENNA__391__A _389_/A VSS VDD scs8hd_diode_2
XFILLER_13_108 VDD VSS scs8hd_fill_2
XFILLER_21_141 VSS VDD scs8hd_decap_3
XFILLER_21_174 VSS VDD scs8hd_fill_1
X_622_ _617_/Y _618_/Y _623_/A _623_/B _687_/D VSS VDD scs8hd_a2bb2o_4
X_484_ _483_/X _484_/X VSS VDD scs8hd_buf_1
X_553_ _553_/A _553_/Y VSS VDD scs8hd_inv_8